I"Ò/Users/Troy/Development/code/Flatiron%20School/Labs/rails-dynamic-request-readme-web-0716/app/assets/stylesheets/application.css?type=text/css&id=86c9e6cc1a660147d7211db9ac0021a2ff2691e7542a2900aad1c6d283ccc8be:ET