[o:Set:
@hash}	I"environment-version:ETTI"environment-paths;TTI"Lprocessors:type=text/css&file_type=text/css&engines=.scss&pipeline=self;TTI"‰file-digest:///Users/Troy/Development/code/Flatiron%20School/Labs/rails-dynamic-request-readme-web-0716/app/assets/stylesheets/posts.scss;TTF