I"ë/Users/Troy/Development/code/Flatiron%20School/Labs/rails-dynamic-request-readme-web-0716/app/assets/javascripts/posts.coffee?type=application/javascript&pipeline=self&id=894d1412ca9aa247df21c28ba09336db6dad9dfea22489090cf9886368aa52c9:ET