I"ß/Users/Troy/Development/code/Flatiron%20School/Labs/rails-dynamic-request-readme-web-0716/app/assets/javascripts/application.js?type=application/javascript&id=dd709d539da3246a0eab2cad03ef8e495081cf491b18b0550c51df80ccd726ce:ET