I"Û/Users/Troy/Development/code/Flatiron%20School/Labs/rails-dynamic-request-readme-web-0716/app/assets/stylesheets/posts.scss?type=text/css&pipeline=self&id=577d2f11959e31655413a57af86e4bb168bf5dae6852753f3561cc89cb25c6c1:ET