[o:Set:
@hash}I"environment-version:ETTI"environment-paths;TTI">processors:type=text/css&file_type=text/css&pipeline=self;TTI"Žfile-digest:///Users/Troy/Development/code/Flatiron%20School/Labs/rails-dynamic-request-readme-web-0716/app/assets/stylesheets/application.css;TTI"~file-digest:///Users/Troy/Development/code/Flatiron%20School/Labs/rails-dynamic-request-readme-web-0716/app/assets/stylesheets;TTI"‰file-digest:///Users/Troy/Development/code/Flatiron%20School/Labs/rails-dynamic-request-readme-web-0716/app/assets/stylesheets/posts.scss;TTF