[o:Set:
@hash}I"environment-version:ETTI"environment-paths;TTI"0processors:type=text/css&file_type=text/css;TTI"Žfile-digest:///Users/Troy/Development/code/Flatiron%20School/Labs/rails-dynamic-request-readme-web-0716/app/assets/stylesheets/application.css;TTI"Lprocessors:type=text/css&file_type=text/css&engines=.scss&pipeline=self;TTI"‰file-digest:///Users/Troy/Development/code/Flatiron%20School/Labs/rails-dynamic-request-readme-web-0716/app/assets/stylesheets/posts.scss;TTI">processors:type=text/css&file_type=text/css&pipeline=self;TTI"~file-digest:///Users/Troy/Development/code/Flatiron%20School/Labs/rails-dynamic-request-readme-web-0716/app/assets/stylesheets;TTF