I"à/Users/Troy/Development/code/Flatiron%20School/Labs/rails-dynamic-request-readme-web-0716/app/assets/stylesheets/application.css?type=text/css&pipeline=self&id=2d0b21d76cbcbd3e949886d32134e6ceb220ebbae3ba2c232805b859e15fb646:ET