I"í/Users/Troy/Development/code/Flatiron%20School/Labs/rails-dynamic-request-readme-web-0716/app/assets/javascripts/application.js?type=application/javascript&pipeline=self&id=77ca4aa3eaa33e9c0fe9148978e4be542c2b13d8e5298eca3802bedd7af25400:ET